
     RDKit          3D

  0  0  0  0  0  0  0  0  0  0999 V3000
M  V30 BEGIN CTAB
M  V30 COUNTS 97 92 0 0 0
M  V30 BEGIN ATOM
M  V30 1 C -2.795510 3.505271 -4.279405 3 CFG=1
M  V30 2 C -3.001911 3.627420 -2.803373 1
M  V30 3 O -2.766324 2.774739 -1.966841 2
M  V30 4 O -4.364992 0.547356 -0.068804 4
M  V30 5 C -3.614293 -0.580985 0.071335 5
M  V30 6 C -2.960399 -0.769430 1.283753 6
M  V30 7 C -2.184736 -1.913189 1.480030 7
M  V30 8 C -2.072178 -2.858275 0.450745 8
M  V30 9 N -1.269451 -4.066944 0.663254 11 CHG=1
M  V30 10 O -1.131197 -4.845490 -0.290630 12
M  V30 11 O -0.779044 -4.239055 1.788275 13 CHG=-1
M  V30 12 C -2.724094 -2.658614 -0.775037 9
M  V30 13 C -3.506012 -1.513702 -0.959024 10
M  V30 14 O -3.439068 4.843729 -2.433267 60
M  V30 15 H -1.127115 5.753244 -2.586071 61
M  V30 16 H -3.459902 4.788411 -1.453681 62
M  V30 17 O -0.843263 4.624554 -0.839350 20 CHG=-1
M  V30 18 H -4.776722 0.543466 -0.948566 21
M  V30 19 C -0.092421 5.462120 -0.126004 22 CFG=1
M  V30 20 C 0.585970 4.645137 1.020083 23 CFG=2
M  V30 21 C -0.848950 7.920314 -4.926897 40
M  V30 22 C -0.901667 9.207353 -5.670778 47 CFG=1
M  V30 23 C -1.177194 9.069097 -7.169695 46 CFG=2
M  V30 24 N -0.312559 6.740856 -5.416335 41
M  V30 25 H 0.090527 6.615389 -6.357074 45
M  V30 26 C -0.375511 5.754615 -4.524874 42
M  V30 27 N -0.949236 6.276270 -3.440338 43 CHG=1
M  V30 28 C -1.263188 7.601078 -3.653067 44
M  V30 29 O -1.963636 -2.213505 7.952710 50 CHG=-1
M  V30 30 C -2.463710 -2.319598 6.794282 51
M  V30 31 O -3.225724 -1.530656 6.172727 52
M  V30 32 C -2.050821 -3.601764 6.064784 53 CFG=1
M  V30 33 C -2.728641 -3.791474 4.722151 54 CFG=1
M  V30 34 C 0.822884 -2.090391 -1.372293 70 CFG=1
M  V30 35 C 2.192241 -2.162266 -0.711164 71 CFG=1
M  V30 36 O 2.024600 -2.148761 0.703654 72
M  V30 37 C 2.927361 -3.430532 -1.112299 73 CFG=1
M  V30 38 C 1.444425 0.981284 0.015521 80 CFG=1
M  V30 39 C 1.810694 1.507000 -1.361865 81 CFG=1
M  V30 40 C 0.601577 1.821393 -2.239485 82 CFG=2
M  V30 41 C 0.770658 1.350129 -3.668522 83
M  V30 42 O 1.847496 1.143380 -4.213870 84
M  V30 43 N -0.395251 1.224431 -4.366419 85
M  V30 44 C 1.858344 8.157876 -9.312873 10000 CFG=1
M  V30 45 C 0.754292 7.949696 -8.311956 10001
M  V30 46 O 0.514213 6.855810 -7.802343 10002
M  V30 47 N 0.046710 9.073151 -7.981782 10003
M  V30 48 C -2.017859 10.273030 -7.640376 10004
M  V30 49 O -1.539421 11.165147 -8.343520 10005
M  V30 50 N -0.371406 4.253913 2.057292 10011
M  V30 51 C 1.735925 5.409731 1.698188 10012
M  V30 52 O 1.708347 6.627325 1.890110 10013
M  V30 53 H -3.205553 4.361043 -4.821607 10016
M  V30 54 H -1.719635 3.448564 -4.460038 10017
M  V30 55 H -3.307502 2.613882 -4.647735 10018
M  V30 56 H -3.062081 -0.026173 2.071833 10019
M  V30 57 H -1.679118 -2.048450 2.430564 10020
M  V30 58 H -2.641309 -3.383420 -1.582448 10021
M  V30 59 H -4.031121 -1.369437 -1.899492 10022
M  V30 60 H 0.730962 5.972600 -0.655624 10023
M  V30 61 H -0.578795 6.326170 0.362486 10024
M  V30 62 H 1.036423 3.765965 0.567511 10025
M  V30 63 H -1.688763 9.809913 -5.198591 10026
M  V30 64 H 0.044277 9.733959 -5.495541 10027
M  V30 65 H -1.750920 8.165199 -7.405551 10028
M  V30 66 H -0.026662 4.733261 -4.660676 10029
M  V30 67 H -1.743031 8.157348 -2.865451 10030
M  V30 68 H -0.960233 -3.571651 5.914669 10031
M  V30 69 H -2.284165 -4.464931 6.707060 10032
M  V30 70 H -3.809355 -3.901012 4.845918 10033
M  V30 71 H -2.545145 -2.939578 4.066733 10034
M  V30 72 H -2.351271 -4.698989 4.241728 10035
M  V30 73 H 0.258307 -3.020426 -1.226807 10036
M  V30 74 H 0.212628 -1.286552 -0.955076 10037
M  V30 75 H 0.928905 -1.930429 -2.450179 10038
M  V30 76 H 2.781065 -1.283763 -0.992294 10039
M  V30 77 H 2.795452 -1.688561 1.078993 10040
M  V30 78 H 3.884525 -3.500562 -0.587266 10041
M  V30 79 H 2.351390 -4.321614 -0.839857 10042
M  V30 80 H 3.121584 -3.451941 -2.187696 10043
M  V30 81 H 1.416484 1.763071 0.768772 10044
M  V30 82 H 0.469900 0.493831 0.025900 10045
M  V30 83 H 2.216152 0.287376 0.359845 10046
M  V30 84 H 2.422845 2.411579 -1.254307 10047
M  V30 85 H 2.439301 0.751582 -1.842633 10048
M  V30 86 H 0.476004 2.913355 -2.271397 10049
M  V30 87 H -0.328933 1.409879 -1.832249 10050
M  V30 88 H -0.316310 0.906890 -5.323385 10051
M  V30 89 H -1.308693 1.328509 -3.954218 10052
M  V30 90 H 2.798018 8.328679 -8.783250 10053
M  V30 91 H 1.946990 7.264684 -9.939273 10054
M  V30 92 H 1.646992 9.009658 -9.966193 10055
M  V30 93 H 0.312741 9.969007 -8.393133 10056
M  V30 94 H -1.269674 4.461140 1.597476 10064
M  V30 95 H -3.067179 10.297700 -7.300497 10069
M  V30 96 H -0.374556 3.236772 2.076908 10070
M  V30 97 H 2.564801 4.785489 2.069342 10071
M  V30 END ATOM
M  V30 BEGIN BOND
M  V30 1 1 1 2
M  V30 2 2 2 3
M  V30 3 1 4 5
M  V30 4 2 5 6
M  V30 5 1 6 7
M  V30 6 2 7 8
M  V30 7 1 8 9
M  V30 8 2 9 10
M  V30 9 1 9 11
M  V30 10 1 8 12
M  V30 11 2 12 13
M  V30 12 1 13 5
M  V30 13 1 14 16
M  V30 14 1 17 19
M  V30 15 1 19 20
M  V30 16 1 21 22
M  V30 17 1 22 23
M  V30 18 1 21 24
M  V30 19 1 24 25
M  V30 20 1 24 26
M  V30 21 2 26 27
M  V30 22 1 27 28
M  V30 23 2 28 21
M  V30 24 1 29 30
M  V30 25 2 30 31
M  V30 26 1 30 32
M  V30 27 1 32 33
M  V30 28 1 34 35
M  V30 29 1 35 36
M  V30 30 1 35 37
M  V30 31 1 38 39
M  V30 32 1 39 40
M  V30 33 1 40 41
M  V30 34 2 41 42
M  V30 35 1 41 43
M  V30 36 1 4 18
M  V30 37 1 15 27
M  V30 38 1 2 14
M  V30 39 1 44 45
M  V30 40 2 45 46
M  V30 41 1 47 23
M  V30 42 1 23 48
M  V30 43 2 48 49
M  V30 44 1 45 47
M  V30 45 1 50 20
M  V30 46 1 20 51
M  V30 47 2 51 52
M  V30 48 1 1 53 CFG=3
M  V30 49 1 1 54
M  V30 50 1 1 55
M  V30 51 1 6 56
M  V30 52 1 7 57
M  V30 53 1 12 58
M  V30 54 1 13 59
M  V30 55 1 19 60 CFG=3
M  V30 56 1 19 61
M  V30 57 1 20 62 CFG=3
M  V30 58 1 22 63 CFG=1
M  V30 59 1 22 64
M  V30 60 1 23 65 CFG=1
M  V30 61 1 26 66
M  V30 62 1 28 67
M  V30 63 1 32 68 CFG=3
M  V30 64 1 32 69
M  V30 65 1 33 70 CFG=1
M  V30 66 1 33 71
M  V30 67 1 33 72
M  V30 68 1 34 73 CFG=3
M  V30 69 1 34 74
M  V30 70 1 34 75
M  V30 71 1 35 76 CFG=1
M  V30 72 1 36 77
M  V30 73 1 37 78 CFG=1
M  V30 74 1 37 79
M  V30 75 1 37 80
M  V30 76 1 38 81 CFG=1
M  V30 77 1 38 82
M  V30 78 1 38 83
M  V30 79 1 39 84 CFG=1
M  V30 80 1 39 85
M  V30 81 1 40 86 CFG=1
M  V30 82 1 40 87
M  V30 83 1 43 88
M  V30 84 1 43 89
M  V30 85 1 44 90 CFG=1
M  V30 86 1 44 91
M  V30 87 1 44 92
M  V30 88 1 47 93
M  V30 89 1 50 94
M  V30 90 1 48 95
M  V30 91 1 50 96
M  V30 92 1 51 97
M  V30 END BOND
M  V30 END CTAB
M  END

$$$$
