
     RDKit          3D

  0  0  0  0  0  0  0  0  0  0999 V3000
M  V30 BEGIN CTAB
M  V30 COUNTS 97 92 0 0 0
M  V30 BEGIN ATOM
M  V30 1 C -2.981292 3.321094 -5.331297 3 CFG=1
M  V30 2 C -2.897754 3.708586 -3.890191 1
M  V30 3 O -1.954682 3.509232 -3.145522 2
M  V30 4 O -5.461953 0.082710 0.604057 4
M  V30 5 C -4.850422 -1.132800 0.577762 5
M  V30 6 C -4.303563 -1.606927 1.767663 6
M  V30 7 C -3.585527 -2.802674 1.765329 7
M  V30 8 C -3.432110 -3.510594 0.565980 8
M  V30 9 N -2.621703 -4.727549 0.551674 11 CHG=1
M  V30 10 O -2.366833 -5.236533 -0.549367 12
M  V30 11 O -2.245831 -5.173889 1.645121 13 CHG=-1
M  V30 12 C -4.025953 -3.053710 -0.618603 9
M  V30 13 C -4.742635 -1.855544 -0.608545 10
M  V30 14 O -4.021770 4.292061 -3.435963 60
M  V30 15 H -1.828914 4.707539 -0.076277 61
M  V30 16 H -3.823897 4.471860 -2.492518 62
M  V30 17 O -1.076419 4.761828 -0.689407 20
M  V30 18 H -5.714350 0.319485 -0.306238 21
M  V30 19 C -0.038031 5.474732 -0.014627 22 CFG=1
M  V30 20 C 0.575801 4.602890 1.089950 23 CFG=2
M  V30 21 C -0.828185 7.995439 -4.941035 40
M  V30 22 C -0.870449 9.270591 -5.721501 47 CFG=1
M  V30 23 C -1.162466 9.113198 -7.221887 46 CFG=2
M  V30 24 N -0.330500 6.800573 -5.405392 41
M  V30 25 H 0.044017 6.612569 -6.332517 45
M  V30 26 C -0.462224 5.878187 -4.407079 42
M  V30 27 N -0.994611 6.405584 -3.330289 43
M  V30 28 C -1.215594 7.719451 -3.644727 44
M  V30 29 O -1.415012 -1.997473 8.287217 50 CHG=-1
M  V30 30 C -1.383379 -1.960479 7.024474 51
M  V30 31 O -1.666595 -1.011237 6.239902 52
M  V30 32 C -0.930066 -3.272641 6.374463 53 CFG=1
M  V30 33 C -1.139485 -3.333590 4.872231 54 CFG=2
M  V30 34 C 0.532129 -2.179577 -1.623703 70 CFG=1
M  V30 35 C 1.647955 -2.866280 -0.853062 71 CFG=2
M  V30 36 O 1.079236 -3.539276 0.266304 72
M  V30 37 C 2.681518 -1.875510 -0.347841 73 CFG=1
M  V30 38 C 3.060260 1.703569 0.003559 80 CFG=1
M  V30 39 C 3.251488 1.899313 -1.493847 81 CFG=1
M  V30 40 C 2.238894 1.100712 -2.307179 82 CFG=1
M  V30 41 C 1.179293 1.953507 -2.969698 83
M  V30 42 O 1.425066 2.836662 -3.779373 84
M  V30 43 N -0.101767 1.622358 -2.647701 85
M  V30 44 C 1.844734 8.183366 -9.378653 10000 CFG=1
M  V30 45 C 0.702220 7.954809 -8.428183 10001
M  V30 46 O 0.392776 6.838784 -8.021589 10002
M  V30 47 N 0.059690 9.096557 -8.036445 10003
M  V30 48 C -1.995078 10.316662 -7.707834 10004
M  V30 49 O -1.511467 11.195126 -8.424499 10005
M  V30 50 N -0.390662 4.287774 2.144502 10011
M  V30 51 C 1.772612 5.318441 1.739918 10012
M  V30 52 O 1.813316 6.539698 1.904246 10013
M  V30 53 H -3.661571 3.989474 -5.867458 10016
M  V30 54 H -1.991791 3.416223 -5.787815 10017
M  V30 55 H -3.330726 2.289342 -5.415580 10018
M  V30 56 H -4.420750 -1.042817 2.691392 10019
M  V30 57 H -3.143282 -3.155307 2.694752 10020
M  V30 58 H -3.913620 -3.593001 -1.557617 10021
M  V30 59 H -5.190855 -1.494027 -1.530721 10022
M  V30 60 H 0.721111 5.746434 -0.755941 10023
M  V30 61 H -0.461959 6.406656 0.376518 10024
M  V30 62 H 0.959463 3.674352 0.655530 10025
M  V30 63 H -1.645106 9.899915 -5.262638 10026
M  V30 64 H 0.079927 9.799230 -5.571831 10027
M  V30 65 H -1.747697 8.212514 -7.440319 10028
M  V30 66 H -0.156258 4.848000 -4.527868 10029
M  V30 67 H -1.644245 8.398638 -2.918562 10030
M  V30 68 H 0.130200 -3.427595 6.600867 10031
M  V30 69 H -1.486625 -4.093182 6.839193 10032
M  V30 70 H -0.899106 -4.336367 4.499712 10033
M  V30 71 H -0.490820 -2.615492 4.360260 10034
M  V30 72 H -2.178027 -3.105226 4.610941 10035
M  V30 73 H 0.254024 -1.228149 -1.155708 10036
M  V30 74 H 0.843915 -1.968022 -2.651656 10037
M  V30 75 H -0.367231 -2.805610 -1.645692 10038
M  V30 76 H 2.121485 -3.616145 -1.495751 10039
M  V30 77 H 1.658388 -4.296352 0.463353 10040
M  V30 78 H 3.378143 -2.360848 0.346060 10041
M  V30 79 H 3.240661 -1.434662 -1.177441 10042
M  V30 80 H 2.206754 -1.059977 0.209136 10043
M  V30 81 H 2.016726 1.843609 0.295126 10044
M  V30 82 H 3.363277 0.692968 0.296347 10045
M  V30 83 H 3.677900 2.413824 0.563497 10046
M  V30 84 H 3.229307 2.970503 -1.732856 10047
M  V30 85 H 4.253960 1.532706 -1.745223 10048
M  V30 86 H 2.765218 0.616090 -3.134208 10049
M  V30 87 H 1.778848 0.302479 -1.710011 10050
M  V30 88 H -0.851153 2.124861 -3.107693 10051
M  V30 89 H -0.329846 0.978585 -1.904761 10052
M  V30 90 H 2.761212 8.358310 -8.810338 10053
M  V30 91 H 1.967688 7.301214 -10.013647 10054
M  V30 92 H 1.645460 9.041228 -10.027560 10055
M  V30 93 H 0.369445 9.997133 -8.394831 10056
M  V30 94 H -0.810406 5.153054 2.489501 10064
M  V30 95 H -3.041107 10.354293 -7.359461 10069
M  V30 96 H -1.145246 3.722937 1.758917 10070
M  V30 97 H 2.571185 4.659905 2.122000 10071
M  V30 END ATOM
M  V30 BEGIN BOND
M  V30 1 1 1 2
M  V30 2 2 2 3
M  V30 3 1 4 5
M  V30 4 2 5 6
M  V30 5 1 6 7
M  V30 6 2 7 8
M  V30 7 1 8 9
M  V30 8 2 9 10
M  V30 9 1 9 11
M  V30 10 1 8 12
M  V30 11 2 12 13
M  V30 12 1 13 5
M  V30 13 1 14 16
M  V30 14 1 17 19
M  V30 15 1 19 20
M  V30 16 1 21 22
M  V30 17 1 22 23
M  V30 18 1 21 24
M  V30 19 1 24 25
M  V30 20 1 24 26
M  V30 21 2 26 27
M  V30 22 1 27 28
M  V30 23 2 28 21
M  V30 24 1 29 30
M  V30 25 2 30 31
M  V30 26 1 30 32
M  V30 27 1 32 33
M  V30 28 1 34 35
M  V30 29 1 35 36
M  V30 30 1 35 37
M  V30 31 1 38 39
M  V30 32 1 39 40
M  V30 33 1 40 41
M  V30 34 2 41 42
M  V30 35 1 41 43
M  V30 36 1 4 18
M  V30 37 1 2 14
M  V30 38 1 15 17
M  V30 39 1 44 45
M  V30 40 2 45 46
M  V30 41 1 47 23
M  V30 42 1 23 48
M  V30 43 2 48 49
M  V30 44 1 45 47
M  V30 45 1 50 20
M  V30 46 1 20 51
M  V30 47 2 51 52
M  V30 48 1 1 53 CFG=3
M  V30 49 1 1 54
M  V30 50 1 1 55
M  V30 51 1 6 56
M  V30 52 1 7 57
M  V30 53 1 12 58
M  V30 54 1 13 59
M  V30 55 1 19 60 CFG=3
M  V30 56 1 19 61
M  V30 57 1 20 62 CFG=3
M  V30 58 1 22 63 CFG=1
M  V30 59 1 22 64
M  V30 60 1 23 65 CFG=1
M  V30 61 1 26 66
M  V30 62 1 28 67
M  V30 63 1 32 68 CFG=3
M  V30 64 1 32 69
M  V30 65 1 33 70 CFG=1
M  V30 66 1 33 71
M  V30 67 1 33 72
M  V30 68 1 34 73 CFG=1
M  V30 69 1 34 74
M  V30 70 1 34 75
M  V30 71 1 35 76 CFG=3
M  V30 72 1 36 77
M  V30 73 1 37 78 CFG=1
M  V30 74 1 37 79
M  V30 75 1 37 80
M  V30 76 1 38 81 CFG=3
M  V30 77 1 38 82
M  V30 78 1 38 83
M  V30 79 1 39 84 CFG=1
M  V30 80 1 39 85
M  V30 81 1 40 86 CFG=3
M  V30 82 1 40 87
M  V30 83 1 43 88
M  V30 84 1 43 89
M  V30 85 1 44 90 CFG=1
M  V30 86 1 44 91
M  V30 87 1 44 92
M  V30 88 1 47 93
M  V30 89 1 50 94
M  V30 90 1 48 95
M  V30 91 1 50 96
M  V30 92 1 51 97
M  V30 END BOND
M  V30 END CTAB
M  END

$$$$
