
     RDKit          3D

  0  0  0  0  0  0  0  0  0  0999 V3000
M  V30 BEGIN CTAB
M  V30 COUNTS 97 92 0 0 0
M  V30 BEGIN ATOM
M  V30 1 C -0.442066 3.223389 -2.661848 3 CFG=1
M  V30 2 C -0.773591 3.357246 -1.219572 1
M  V30 3 O -0.976284 2.396946 -0.475849 2
M  V30 4 O -2.746844 2.496723 -0.068607 4
M  V30 5 C -2.602876 1.324670 0.614422 5
M  V30 6 C -1.435512 1.140272 1.356776 6
M  V30 7 C -1.221752 -0.056181 2.024694 7
M  V30 8 C -2.175791 -1.065383 1.852106 8
M  V30 9 N -1.905660 -2.400672 2.326351 11 CHG=1
M  V30 10 O -2.461401 -3.335055 1.742424 12
M  V30 11 O -1.107428 -2.494212 3.265940 13 CHG=-1
M  V30 12 C -3.358149 -0.874821 1.127574 9
M  V30 13 C -3.583964 0.342327 0.511896 10
M  V30 14 O -3.483794 4.787256 -2.241899 60
M  V30 15 H -2.937140 5.505910 -2.590304 61
M  V30 16 H -3.828972 5.191267 -1.430629 62
M  V30 17 O -0.930609 4.660055 -0.900108 20
M  V30 18 H -3.679563 2.566480 -0.340804 21
M  V30 19 C 0.021965 5.327618 -0.072957 22 CFG=1
M  V30 20 C 0.613894 4.585445 1.102135 23 CFG=2
M  V30 21 C -0.936966 8.044641 -4.882873 40
M  V30 22 C -0.791295 9.336519 -5.614391 47 CFG=1
M  V30 23 C -1.121948 9.216836 -7.109733 46 CFG=2
M  V30 24 N -0.575874 6.833661 -5.418503 41
M  V30 25 H -0.130275 6.665264 -6.316650 45
M  V30 26 C -0.990879 5.868529 -4.550396 42
M  V30 27 N -1.601428 6.397626 -3.517456 43
M  V30 28 C -1.507940 7.740768 -3.664313 44
M  V30 29 O -3.700338 -2.731870 7.276398 50 CHG=-1
M  V30 30 C -3.036787 -2.666714 6.205955 51
M  V30 31 O -2.389015 -1.691882 5.728534 52
M  V30 32 C -2.995510 -3.958091 5.395266 53 CFG=1
M  V30 33 C -4.049770 -3.893321 4.310288 54 CFG=1
M  V30 34 C 2.605997 -1.203974 0.392875 70 CFG=1
M  V30 35 C 3.934962 -0.464859 0.307128 71 CFG=2
M  V30 36 O 3.700922 0.942676 0.300111 72
M  V30 37 C 4.723262 -0.833347 -0.941542 73 CFG=1
M  V30 38 C -1.065877 -1.180824 -1.347980 80 CFG=1
M  V30 39 C -0.264057 -0.244513 -2.253634 81 CFG=1
M  V30 40 C 0.721371 -1.053255 -3.096696 82 CFG=1
M  V30 41 C 1.092070 -0.428312 -4.402739 83
M  V30 42 O 1.956142 -0.907143 -5.132393 84
M  V30 43 N 0.423326 0.674225 -4.800365 85
M  V30 44 C 1.844053 8.201921 -9.283362 10000 CFG=1
M  V30 45 C 0.679602 7.996309 -8.354706 10001
M  V30 46 O 0.302377 6.884758 -7.996780 10002
M  V30 47 N 0.100924 9.156593 -7.921153 10003
M  V30 48 C -1.901091 10.459609 -7.585299 10004
M  V30 49 O -1.378317 11.324043 -8.291449 10005
M  V30 50 N -0.349475 4.257820 2.155705 10011
M  V30 51 C 1.781986 5.351255 1.747057 10012
M  V30 52 O 1.781695 6.575935 1.889497 10013
M  V30 53 H 0.173660 4.052922 -3.009985 10016
M  V30 54 H 0.192407 2.342277 -2.763806 10017
M  V30 55 H -1.359968 3.177770 -3.248923 10018
M  V30 56 H -0.662465 1.891803 1.386011 10019
M  V30 57 H -0.311467 -0.199974 2.606605 10020
M  V30 58 H -4.066715 -1.679461 0.987563 10021
M  V30 59 H -4.468485 0.478809 -0.111025 10022
M  V30 60 H 0.814317 5.700821 -0.743752 10023
M  V30 61 H -0.513455 6.208266 0.308465 10024
M  V30 62 H 1.052951 3.648670 0.737068 10025
M  V30 63 H -1.462423 10.065007 -5.143988 10026
M  V30 64 H 0.227301 9.713805 -5.477970 10027
M  V30 65 H -1.748068 8.348913 -7.347176 10028
M  V30 66 H -0.856353 4.814584 -4.749697 10029
M  V30 67 H -1.928406 8.418084 -2.930921 10030
M  V30 68 H -1.997910 -4.103393 4.962686 10031
M  V30 69 H -3.200428 -4.810242 6.053548 10032
M  V30 70 H -3.962281 -4.770438 3.658890 10033
M  V30 71 H -5.057875 -3.888290 4.723029 10034
M  V30 72 H -3.938344 -2.990631 3.686691 10035
M  V30 73 H 2.727583 -2.192320 0.866532 10036
M  V30 74 H 1.853870 -0.620852 0.945657 10037
M  V30 75 H 2.196098 -1.387978 -0.594185 10038
M  V30 76 H 4.524159 -0.684232 1.201272 10039
M  V30 77 H 3.192384 1.158773 -0.500475 10040
M  V30 78 H 5.717303 -0.372130 -0.920263 10041
M  V30 79 H 4.843731 -1.916090 -1.041419 10042
M  V30 80 H 4.228694 -0.459771 -1.844507 10043
M  V30 81 H -2.120077 -0.876826 -1.326348 10044
M  V30 82 H -1.055428 -2.220610 -1.692866 10045
M  V30 83 H -0.674466 -1.191356 -0.328045 10046
M  V30 84 H -0.999629 0.233012 -2.902859 10047
M  V30 85 H 0.230586 0.550438 -1.691593 10048
M  V30 86 H 1.651154 -1.240190 -2.566081 10049
M  V30 87 H 0.277296 -2.022771 -3.365567 10050
M  V30 88 H 0.646351 0.988543 -5.732043 10051
M  V30 89 H -0.330866 1.161084 -4.352676 10052
M  V30 90 H 2.756272 8.333988 -8.696947 10053
M  V30 91 H 1.947002 7.329738 -9.934890 10054
M  V30 92 H 1.685453 9.080013 -9.916443 10055
M  V30 93 H 0.464320 10.050157 -8.244785 10056
M  V30 94 H -0.913194 5.076994 2.385298 10064
M  V30 95 H -2.944011 10.539947 -7.235027 10069
M  V30 96 H 0.117236 3.970758 3.013765 10070
M  V30 97 H 2.602484 4.727075 2.141091 10071
M  V30 END ATOM
M  V30 BEGIN BOND
M  V30 1 1 1 2
M  V30 2 2 2 3
M  V30 3 1 4 5
M  V30 4 2 5 6
M  V30 5 1 6 7
M  V30 6 2 7 8
M  V30 7 1 8 9
M  V30 8 2 9 10
M  V30 9 1 9 11
M  V30 10 1 8 12
M  V30 11 2 12 13
M  V30 12 1 13 5
M  V30 13 1 14 15
M  V30 14 1 14 16
M  V30 15 1 17 19
M  V30 16 1 19 20
M  V30 17 1 21 22
M  V30 18 1 22 23
M  V30 19 1 21 24
M  V30 20 1 24 25
M  V30 21 1 24 26
M  V30 22 2 26 27
M  V30 23 1 27 28
M  V30 24 2 28 21
M  V30 25 1 29 30
M  V30 26 2 30 31
M  V30 27 1 30 32
M  V30 28 1 32 33
M  V30 29 1 34 35
M  V30 30 1 35 36
M  V30 31 1 35 37
M  V30 32 1 38 39
M  V30 33 1 39 40
M  V30 34 1 40 41
M  V30 35 2 41 42
M  V30 36 1 41 43
M  V30 37 1 2 17
M  V30 38 1 4 18
M  V30 39 1 44 45
M  V30 40 2 45 46
M  V30 41 1 47 23
M  V30 42 1 23 48
M  V30 43 2 48 49
M  V30 44 1 45 47
M  V30 45 1 50 20
M  V30 46 1 20 51
M  V30 47 2 51 52
M  V30 48 1 1 53 CFG=3
M  V30 49 1 1 54
M  V30 50 1 1 55
M  V30 51 1 6 56
M  V30 52 1 7 57
M  V30 53 1 12 58
M  V30 54 1 13 59
M  V30 55 1 19 60 CFG=3
M  V30 56 1 19 61
M  V30 57 1 20 62 CFG=3
M  V30 58 1 22 63 CFG=1
M  V30 59 1 22 64
M  V30 60 1 23 65 CFG=1
M  V30 61 1 26 66
M  V30 62 1 28 67
M  V30 63 1 32 68 CFG=3
M  V30 64 1 32 69
M  V30 65 1 33 70 CFG=3
M  V30 66 1 33 71
M  V30 67 1 33 72
M  V30 68 1 34 73 CFG=1
M  V30 69 1 34 74
M  V30 70 1 34 75
M  V30 71 1 35 76 CFG=1
M  V30 72 1 36 77
M  V30 73 1 37 78 CFG=1
M  V30 74 1 37 79
M  V30 75 1 37 80
M  V30 76 1 38 81 CFG=1
M  V30 77 1 38 82
M  V30 78 1 38 83
M  V30 79 1 39 84 CFG=3
M  V30 80 1 39 85
M  V30 81 1 40 86 CFG=1
M  V30 82 1 40 87
M  V30 83 1 43 88
M  V30 84 1 43 89
M  V30 85 1 44 90 CFG=1
M  V30 86 1 44 91
M  V30 87 1 44 92
M  V30 88 1 47 93
M  V30 89 1 50 94
M  V30 90 1 48 95
M  V30 91 1 50 96
M  V30 92 1 51 97
M  V30 END BOND
M  V30 END CTAB
M  END

$$$$
