
     RDKit          3D

  0  0  0  0  0  0  0  0  0  0999 V3000
M  V30 BEGIN CTAB
M  V30 COUNTS 94 91 0 0 0
M  V30 BEGIN ATOM
M  V30 1 C -0.465280 3.049999 -2.917967 3 CFG=1
M  V30 2 C -0.624434 3.362914 -1.428944 1 CFG=2
M  V30 3 O 0.169699 2.347078 -1.081793 2 CHG=-1
M  V30 4 O -2.158292 3.358070 -1.530495 4
M  V30 5 C -2.595778 2.319525 -0.550219 5
M  V30 6 C -1.783061 1.873077 0.498134 6
M  V30 7 C -1.993470 0.797837 1.338996 7
M  V30 8 C -3.127944 0.049249 1.180700 8
M  V30 9 N -3.145754 -1.198024 1.995362 11 CHG=1
M  V30 10 O -3.812662 -2.154554 1.584907 12
M  V30 11 O -2.399005 -1.270605 3.002293 13 CHG=-1
M  V30 12 C -4.068879 0.459219 0.209362 9
M  V30 13 C -3.792373 1.595727 -0.641937 10
M  V30 14 O -0.533412 4.694237 -1.001534 20
M  V30 15 H -2.051216 5.176174 -2.691662 21
M  V30 16 C 0.431578 5.141394 -0.101148 22 CFG=1
M  V30 17 C 0.743219 4.452266 1.234651 23 CFG=2
M  V30 18 C -1.186772 7.877819 -4.658183 40
M  V30 19 C -1.111541 9.190951 -5.393286 47 CFG=1
M  V30 20 C -1.297538 9.082499 -6.977990 46 CFG=2
M  V30 21 N -0.911861 6.750477 -5.358125 41
M  V30 22 H -0.515490 6.673288 -6.309311 45
M  V30 23 C -1.186417 5.691240 -4.651622 42
M  V30 24 N -1.643588 5.971581 -3.393300 43 CHG=1
M  V30 25 C -1.574810 7.402568 -3.377046 44
M  V30 26 O -3.376147 -1.034212 7.198261 50 CHG=-1
M  V30 27 C -2.635515 -1.761663 6.478921 51
M  V30 28 O -1.386634 -1.703110 6.291250 52
M  V30 29 C -3.341251 -2.901944 5.739579 53 CFG=1
M  V30 30 C -4.587683 -2.454007 5.004629 54 CFG=1
M  V30 31 C 2.542878 -0.348820 -0.318238 70 CFG=1
M  V30 32 C 3.897741 -0.039712 0.301879 71 CFG=2
M  V30 33 O 3.734936 0.545252 1.591520 72
M  V30 34 C 4.708401 0.919110 -0.554334 73 CFG=1
M  V30 35 C -2.365187 -0.700095 -2.437457 80 CFG=1
M  V30 36 C -1.365790 -0.794510 -3.566718 81 CFG=1
M  V30 37 C -0.122082 -1.549088 -3.160371 82 CFG=1
M  V30 38 C 1.087307 -0.865344 -3.729974 83
M  V30 39 O 1.828551 -1.391887 -4.550853 84
M  V30 40 N 1.332083 0.394546 -3.270642 85
M  V30 41 C 1.745685 8.001515 -9.021215 10000 CFG=1
M  V30 42 C 0.577301 7.854863 -8.088404 10001
M  V30 43 O 0.210342 6.770850 -7.637428 10002
M  V30 44 N -0.046492 9.023759 -7.745375 10003
M  V30 45 C -2.044486 10.343976 -7.455960 10004
M  V30 46 O -1.486335 11.216044 -8.124656 10005
M  V30 47 N -0.307359 4.256931 2.236428 10011
M  V30 48 C 1.903177 5.209989 1.903368 10012
M  V30 49 O 1.958964 6.440724 1.951412 10013
M  V30 50 H -1.375018 3.349548 -3.437727 10016
M  V30 51 H 0.402871 3.536070 -3.382086 10017
M  V30 52 H -0.573228 2.007599 -3.205413 10018
M  V30 53 H -0.857777 2.347461 0.723901 10019
M  V30 54 H -1.227116 0.574042 2.072712 10020
M  V30 55 H -5.016973 -0.053513 0.081078 10021
M  V30 56 H -4.487987 1.891777 -1.423659 10022
M  V30 57 H 1.373593 5.236536 -0.668908 10023
M  V30 58 H 0.151557 6.181169 0.117911 10024
M  V30 59 H 1.171099 3.467228 1.011372 10025
M  V30 60 H -1.902558 9.823419 -4.972678 10026
M  V30 61 H -0.144862 9.650223 -5.158582 10027
M  V30 62 H -1.925783 8.226658 -7.250058 10028
M  V30 63 H -1.109907 4.672934 -5.002042 10029
M  V30 64 H -1.877359 7.905355 -2.472112 10030
M  V30 65 H -2.652408 -3.359530 5.018165 10031
M  V30 66 H -3.610304 -3.664345 6.476399 10032
M  V30 67 H -4.913563 -3.223643 4.298650 10033
M  V30 68 H -5.408987 -2.278541 5.703313 10034
M  V30 69 H -4.406108 -1.527139 4.446410 10035
M  V30 70 H 2.003043 -1.068877 0.306768 10036
M  V30 71 H 1.924336 0.555212 -0.377089 10037
M  V30 72 H 2.646783 -0.772124 -1.322714 10038
M  V30 73 H 4.458347 -0.971567 0.434163 10039
M  V30 74 H 2.817152 0.417140 1.880603 10040
M  V30 75 H 5.095212 1.755739 0.035898 10041
M  V30 76 H 5.555343 0.387168 -0.997629 10042
M  V30 77 H 4.124214 1.332920 -1.382950 10043
M  V30 78 H -1.970731 -0.153863 -1.572601 10044
M  V30 79 H -3.239001 -0.143206 -2.783324 10045
M  V30 80 H -2.687235 -1.703601 -2.130535 10046
M  V30 81 H -1.847005 -1.346918 -4.382093 10047
M  V30 82 H -1.148951 0.194500 -3.972642 10048
M  V30 83 H 0.024628 -1.588264 -2.076695 10049
M  V30 84 H -0.143804 -2.587744 -3.500701 10050
M  V30 85 H 2.069949 0.886570 -3.754821 10051
M  V30 86 H 0.921171 0.846126 -2.425290 10052
M  V30 87 H 2.662159 8.102959 -8.436263 10053
M  V30 88 H 1.808535 7.115520 -9.660310 10054
M  V30 89 H 1.623792 8.874943 -9.667232 10055
M  V30 90 H 0.306467 9.908470 -8.112971 10056
M  V30 91 H -1.204911 4.313897 1.756004 10064
M  V30 92 H -3.102267 10.427942 -7.153866 10069
M  V30 93 H -0.267214 3.323910 2.636059 10070
M  V30 94 H 2.657474 4.581659 2.405727 10071
M  V30 END ATOM
M  V30 BEGIN BOND
M  V30 1 1 1 2
M  V30 2 1 2 3 CFG=1
M  V30 3 1 2 4
M  V30 4 1 4 5
M  V30 5 2 5 6
M  V30 6 1 6 7
M  V30 7 2 7 8
M  V30 8 1 8 9
M  V30 9 2 9 10
M  V30 10 1 9 11
M  V30 11 1 8 12
M  V30 12 2 12 13
M  V30 13 1 13 5
M  V30 14 1 14 16
M  V30 15 1 16 17
M  V30 16 1 18 19
M  V30 17 1 19 20
M  V30 18 1 18 21
M  V30 19 1 21 22
M  V30 20 1 21 23
M  V30 21 2 23 24
M  V30 22 1 24 25
M  V30 23 2 25 18
M  V30 24 1 26 27
M  V30 25 2 27 28
M  V30 26 1 27 29
M  V30 27 1 29 30
M  V30 28 1 31 32
M  V30 29 1 32 33
M  V30 30 1 32 34
M  V30 31 1 35 36
M  V30 32 1 36 37
M  V30 33 1 37 38
M  V30 34 2 38 39
M  V30 35 1 38 40
M  V30 36 1 15 24
M  V30 37 1 2 14
M  V30 38 1 41 42
M  V30 39 2 42 43
M  V30 40 1 44 20
M  V30 41 1 20 45
M  V30 42 2 45 46
M  V30 43 1 42 44
M  V30 44 1 47 17
M  V30 45 1 17 48
M  V30 46 2 48 49
M  V30 47 1 1 50 CFG=3
M  V30 48 1 1 51
M  V30 49 1 1 52
M  V30 50 1 6 53
M  V30 51 1 7 54
M  V30 52 1 12 55
M  V30 53 1 13 56
M  V30 54 1 16 57 CFG=3
M  V30 55 1 16 58
M  V30 56 1 17 59 CFG=3
M  V30 57 1 19 60 CFG=1
M  V30 58 1 19 61
M  V30 59 1 20 62 CFG=1
M  V30 60 1 23 63
M  V30 61 1 25 64
M  V30 62 1 29 65 CFG=3
M  V30 63 1 29 66
M  V30 64 1 30 67 CFG=3
M  V30 65 1 30 68
M  V30 66 1 30 69
M  V30 67 1 31 70 CFG=1
M  V30 68 1 31 71
M  V30 69 1 31 72
M  V30 70 1 32 73 CFG=1
M  V30 71 1 33 74
M  V30 72 1 34 75 CFG=1
M  V30 73 1 34 76
M  V30 74 1 34 77
M  V30 75 1 35 78 CFG=1
M  V30 76 1 35 79
M  V30 77 1 35 80
M  V30 78 1 36 81 CFG=3
M  V30 79 1 36 82
M  V30 80 1 37 83 CFG=1
M  V30 81 1 37 84
M  V30 82 1 40 85
M  V30 83 1 40 86
M  V30 84 1 41 87 CFG=1
M  V30 85 1 41 88
M  V30 86 1 41 89
M  V30 87 1 44 90
M  V30 88 1 47 91
M  V30 89 1 45 92
M  V30 90 1 47 93
M  V30 91 1 48 94
M  V30 END BOND
M  V30 END CTAB
M  END

$$$$
