
     RDKit          3D

  0  0  0  0  0  0  0  0  0  0999 V3000
M  V30 BEGIN CTAB
M  V30 COUNTS 97 93 0 0 0
M  V30 BEGIN ATOM
M  V30 1 C -2.159133 3.675814 -2.959082 3 CFG=1
M  V30 2 C -1.852240 3.775857 -1.447738 1 CFG=2
M  V30 3 O -1.740763 2.539914 -1.056503 2 CHG=-1
M  V30 4 O -3.519370 1.089846 0.751386 4
M  V30 5 C -3.017296 -0.120296 1.127662 5
M  V30 6 C -2.218351 -0.183256 2.269583 6
M  V30 7 C -1.631474 -1.395636 2.630721 7
M  V30 8 C -1.852417 -2.535151 1.843468 8
M  V30 9 N -1.215709 -3.808071 2.188149 11 CHG=1
M  V30 10 O -1.409702 -4.760244 1.422566 12
M  V30 11 O -0.509716 -3.850797 3.204194 13 CHG=-1
M  V30 12 C -2.642184 -2.466432 0.689821 9
M  V30 13 C -3.229811 -1.253260 0.339204 10
M  V30 14 O -3.024958 4.185517 -0.811414 60
M  V30 15 H -1.368201 6.176323 -2.574560 61
M  V30 16 H -3.171006 3.337688 -0.348250 62
M  V30 17 O -0.665258 4.518842 -1.230226 20
M  V30 18 H -4.183355 0.941036 0.053364 21
M  V30 19 C -0.423619 5.267371 -0.036336 22 CFG=1
M  V30 20 C 0.388888 4.521845 1.022833 23 CFG=2
M  V30 21 C -1.005406 8.203426 -5.008454 40
M  V30 22 C -0.950779 9.457155 -5.791750 47 CFG=1
M  V30 23 C -1.201115 9.254120 -7.289751 46 CFG=2
M  V30 24 N -0.482898 7.001098 -5.447062 41
M  V30 25 H -0.043883 6.839397 -6.366088 45
M  V30 26 C -0.578920 6.048270 -4.517999 42
M  V30 27 N -1.208023 6.608781 -3.477004 43 CHG=1
M  V30 28 C -1.494428 7.926645 -3.753605 44
M  V30 29 O -2.151247 -2.886153 6.372427 50 CHG=-1
M  V30 30 C -3.076070 -3.095052 5.534232 51
M  V30 31 O -3.850340 -2.266554 4.983312 52
M  V30 32 C -3.296785 -4.571056 5.198160 53 CFG=1
M  V30 33 C -3.742880 -4.831357 3.767035 54 CFG=1
M  V30 34 C 1.901864 -2.764211 -0.102990 70 CFG=1
M  V30 35 C 3.276209 -2.112783 0.042592 71 CFG=2
M  V30 36 O 3.099298 -0.745403 0.376069 72
M  V30 37 C 4.067453 -2.223795 -1.251506 73 CFG=1
M  V30 38 C 0.098136 -0.069202 -0.550843 80 CFG=1
M  V30 39 C 0.961430 0.801233 -1.446898 81 CFG=1
M  V30 40 C 1.325684 0.277166 -2.815370 82 CFG=1
M  V30 41 C 0.340037 0.483434 -3.934173 83
M  V30 42 O 0.631683 0.256654 -5.106953 84
M  V30 43 N -0.895825 0.920061 -3.599992 85
M  V30 44 C 1.838309 8.224295 -9.352091 10000 CFG=1
M  V30 45 C 0.719163 8.059831 -8.361315 10001
M  V30 46 O 0.437414 6.980189 -7.836886 10002
M  V30 47 N 0.035611 9.213215 -8.081129 10003
M  V30 48 C -2.005580 10.467195 -7.798670 10004
M  V30 49 O -1.494996 11.333374 -8.511568 10005
M  V30 50 N -0.417617 4.012207 2.134249 10011
M  V30 51 C 1.587598 5.283054 1.614849 10012
M  V30 52 O 1.542492 6.480409 1.905428 10013
M  V30 53 H -2.665687 4.586958 -3.292824 10016
M  V30 54 H -1.263397 3.577997 -3.587632 10017
M  V30 55 H -2.858631 2.879396 -3.226216 10018
M  V30 56 H -2.039597 0.709799 2.869056 10019
M  V30 57 H -1.010422 -1.442298 3.523053 10020
M  V30 58 H -2.804835 -3.336708 0.051769 10021
M  V30 59 H -3.843903 -1.202026 -0.555917 10022
M  V30 60 H 0.023962 6.216463 -0.363505 10023
M  V30 61 H -1.381790 5.587394 0.382746 10024
M  V30 62 H 0.843932 3.653786 0.531183 10025
M  V30 63 H -1.694054 10.140000 -5.361092 10026
M  V30 64 H 0.031466 9.910850 -5.621410 10027
M  V30 65 H -1.792107 8.356967 -7.506944 10028
M  V30 66 H -0.201966 5.032951 -4.588169 10029
M  V30 67 H -1.980341 8.511475 -2.987571 10030
M  V30 68 H -2.373016 -5.127740 5.382612 10031
M  V30 69 H -4.060872 -4.954775 5.881672 10032
M  V30 70 H -2.953898 -5.369192 3.252071 10033
M  V30 71 H -4.607154 -5.508933 3.762932 10034
M  V30 72 H -4.006692 -3.934923 3.194934 10035
M  V30 73 H 1.282991 -2.569550 0.779759 10036
M  V30 74 H 1.347557 -2.369303 -0.963239 10037
M  V30 75 H 1.993473 -3.847155 -0.231073 10038
M  V30 76 H 3.828634 -2.585528 0.863480 10039
M  V30 77 H 3.962206 -0.310715 0.326208 10040
M  V30 78 H 4.862943 -1.472038 -1.290911 10041
M  V30 79 H 4.519361 -3.214927 -1.355525 10042
M  V30 80 H 3.422936 -2.048417 -2.121503 10043
M  V30 81 H 0.651087 -0.393567 0.337010 10044
M  V30 82 H -0.754783 0.467813 -0.148429 10045
M  V30 83 H -0.261529 -0.972920 -1.053909 10046
M  V30 84 H 0.570177 1.811413 -1.548984 10047
M  V30 85 H 1.898510 0.981625 -0.905757 10048
M  V30 86 H 2.252119 0.775522 -3.130616 10049
M  V30 87 H 1.549017 -0.791545 -2.769406 10050
M  V30 88 H -1.560584 1.043306 -4.353065 10051
M  V30 89 H -1.181945 1.230738 -2.665600 10052
M  V30 90 H 2.783987 8.389866 -8.830797 10053
M  V30 91 H 1.903623 7.320788 -9.963647 10054
M  V30 92 H 1.638659 9.066409 -10.019478 10055
M  V30 93 H 0.328430 10.090048 -8.514533 10056
M  V30 94 H -1.336362 4.450126 2.146691 10064
M  V30 95 H -3.059516 10.523313 -7.476775 10069
M  V30 96 H 0.026954 4.176634 3.030421 10070
M  V30 97 H 2.482197 4.673009 1.825775 10071
M  V30 END ATOM
M  V30 BEGIN BOND
M  V30 1 1 1 2
M  V30 2 1 2 3 CFG=3
M  V30 3 1 4 5
M  V30 4 2 5 6
M  V30 5 1 6 7
M  V30 6 2 7 8
M  V30 7 1 8 9
M  V30 8 2 9 10
M  V30 9 1 9 11
M  V30 10 1 8 12
M  V30 11 2 12 13
M  V30 12 1 13 5
M  V30 13 1 14 16
M  V30 14 1 17 19
M  V30 15 1 19 20
M  V30 16 1 21 22
M  V30 17 1 22 23
M  V30 18 1 21 24
M  V30 19 1 24 25
M  V30 20 1 24 26
M  V30 21 2 26 27
M  V30 22 1 27 28
M  V30 23 2 28 21
M  V30 24 1 29 30
M  V30 25 2 30 31
M  V30 26 1 30 32
M  V30 27 1 32 33
M  V30 28 1 34 35
M  V30 29 1 35 36
M  V30 30 1 35 37
M  V30 31 1 38 39
M  V30 32 1 39 40
M  V30 33 1 40 41
M  V30 34 2 41 42
M  V30 35 1 41 43
M  V30 36 1 2 17
M  V30 37 1 4 18
M  V30 38 1 15 27
M  V30 39 1 2 14
M  V30 40 1 44 45
M  V30 41 2 45 46
M  V30 42 1 47 23
M  V30 43 1 23 48
M  V30 44 2 48 49
M  V30 45 1 45 47
M  V30 46 1 50 20
M  V30 47 1 20 51
M  V30 48 2 51 52
M  V30 49 1 1 53 CFG=3
M  V30 50 1 1 54
M  V30 51 1 1 55
M  V30 52 1 6 56
M  V30 53 1 7 57
M  V30 54 1 12 58
M  V30 55 1 13 59
M  V30 56 1 19 60 CFG=3
M  V30 57 1 19 61
M  V30 58 1 20 62 CFG=3
M  V30 59 1 22 63 CFG=1
M  V30 60 1 22 64
M  V30 61 1 23 65 CFG=1
M  V30 62 1 26 66
M  V30 63 1 28 67
M  V30 64 1 32 68 CFG=1
M  V30 65 1 32 69
M  V30 66 1 33 70 CFG=3
M  V30 67 1 33 71
M  V30 68 1 33 72
M  V30 69 1 34 73 CFG=1
M  V30 70 1 34 74
M  V30 71 1 34 75
M  V30 72 1 35 76 CFG=1
M  V30 73 1 36 77
M  V30 74 1 37 78 CFG=1
M  V30 75 1 37 79
M  V30 76 1 37 80
M  V30 77 1 38 81 CFG=1
M  V30 78 1 38 82
M  V30 79 1 38 83
M  V30 80 1 39 84 CFG=3
M  V30 81 1 39 85
M  V30 82 1 40 86 CFG=3
M  V30 83 1 40 87
M  V30 84 1 43 88
M  V30 85 1 43 89
M  V30 86 1 44 90 CFG=1
M  V30 87 1 44 91
M  V30 88 1 44 92
M  V30 89 1 47 93
M  V30 90 1 50 94
M  V30 91 1 48 95
M  V30 92 1 50 96
M  V30 93 1 51 97
M  V30 END BOND
M  V30 END CTAB
M  END

$$$$
