
     RDKit          3D

  0  0  0  0  0  0  0  0  0  0999 V3000
M  V30 BEGIN CTAB
M  V30 COUNTS 94 90 0 0 0
M  V30 BEGIN ATOM
M  V30 1 C -2.097846 2.665418 -2.454176 3 CFG=1
M  V30 2 C -1.580050 2.034642 -1.197159 1
M  V30 3 O -0.590794 1.312112 -1.168045 2
M  V30 4 O -2.433736 2.363357 -0.143132 4
M  V30 5 C -2.474905 1.339759 0.795504 5
M  V30 6 C -1.357996 0.973070 1.554360 6
M  V30 7 C -1.411060 -0.172136 2.348981 7
M  V30 8 C -2.591082 -0.930646 2.391199 8
M  V30 9 N -2.585398 -2.210334 3.116486 11 CHG=1
M  V30 10 O -3.529186 -2.992862 2.915406 12
M  V30 11 O -1.629047 -2.438292 3.868548 13 CHG=-1
M  V30 12 C -3.733455 -0.515419 1.681066 9
M  V30 13 C -3.678140 0.638583 0.879273 10
M  V30 14 O -0.812615 4.848295 -0.721568 20
M  V30 15 H -1.022993 5.489595 -1.421773 21
M  V30 16 C 0.228770 5.406450 0.067130 22 CFG=1
M  V30 17 C 0.733373 4.479409 1.186744 23 CFG=2
M  V30 18 C -1.094543 7.859366 -4.861562 40
M  V30 19 C -1.046981 9.144169 -5.628830 47 CFG=1
M  V30 20 C -1.294839 9.010298 -7.138578 46 CFG=2
M  V30 21 N -0.678837 6.637327 -5.335226 41
M  V30 22 H -0.297007 6.439978 -6.257158 45
M  V30 23 C -0.872900 5.713827 -4.347626 42
M  V30 24 N -1.347713 6.268517 -3.259888 43
M  V30 25 C -1.506040 7.595410 -3.569366 44
M  V30 26 O -2.233048 -0.539232 8.101293 50 CHG=-1
M  V30 27 C -1.475299 -1.318207 7.458766 51
M  V30 28 O -0.256073 -1.182415 7.153497 52
M  V30 29 C -2.108500 -2.629333 6.985697 53 CFG=1
M  V30 30 C -3.488699 -2.416409 6.392665 54 CFG=1
M  V30 31 C 2.850892 -0.438594 -1.951204 70 CFG=1
M  V30 32 C 3.281231 0.637359 -0.969992 71 CFG=1
M  V30 33 O 3.952955 0.015442 0.119897 72
M  V30 34 C 4.227761 1.644830 -1.607583 73 CFG=1
M  V30 35 C -2.669046 -1.214700 -1.925685 80 CFG=1
M  V30 36 C -2.512019 -0.988169 -3.418522 81 CFG=2
M  V30 37 C -1.599523 -2.016415 -4.077246 82 CFG=1
M  V30 38 C -0.174320 -1.711510 -4.438277 83
M  V30 39 O 0.547203 -2.563025 -4.947434 84
M  V30 40 N 0.306678 -0.462815 -4.252021 85
M  V30 41 C 1.739576 7.986828 -9.211566 10000 CFG=1
M  V30 42 C 0.561336 7.798052 -8.296803 10001
M  V30 43 O 0.199310 6.692887 -7.903509 10002
M  V30 44 N -0.053411 8.961204 -7.922090 10003
M  V30 45 C -2.078296 10.240971 -7.637928 10004
M  V30 46 O -1.550443 11.108322 -8.336685 10005
M  V30 47 N -0.260828 4.207066 2.227330 10011
M  V30 48 C 1.926467 5.194320 1.844207 10012
M  V30 49 O 1.982368 6.418809 1.976990 10013
M  V30 50 H -2.373357 3.708068 -2.283079 10016
M  V30 51 H -1.313778 2.640474 -3.212731 10017
M  V30 52 H -2.951585 2.077219 -2.811024 10018
M  V30 53 H -0.432046 1.536265 1.479796 10019
M  V30 54 H -0.515456 -0.488340 2.883083 10020
M  V30 55 H -4.657124 -1.093734 1.742970 10021
M  V30 56 H -4.559967 0.956225 0.334489 10022
M  V30 57 H 1.057411 5.654333 -0.602414 10023
M  V30 58 H -0.146723 6.348827 0.479876 10024
M  V30 59 H 1.083395 3.532983 0.762837 10025
M  V30 60 H -1.802785 9.811246 -5.190543 10026
M  V30 61 H -0.076117 9.622233 -5.445535 10027
M  V30 62 H -1.903029 8.131778 -7.383591 10028
M  V30 63 H -0.623837 4.669499 -4.473830 10029
M  V30 64 H -1.884793 8.296006 -2.833422 10030
M  V30 65 H -1.451308 -3.094335 6.242666 10031
M  V30 66 H -2.161301 -3.321516 7.833959 10032
M  V30 67 H -4.234238 -2.255255 7.177799 10033
M  V30 68 H -3.517077 -1.546378 5.728140 10034
M  V30 69 H -3.797793 -3.294061 5.816575 10035
M  V30 70 H 3.715599 -0.915346 -2.423259 10036
M  V30 71 H 2.292160 -1.232476 -1.445962 10037
M  V30 72 H 2.236454 -0.008969 -2.733206 10038
M  V30 73 H 2.405783 1.157476 -0.565654 10039
M  V30 74 H 3.284638 -0.485593 0.618724 10040
M  V30 75 H 4.799454 2.184496 -0.843518 10041
M  V30 76 H 4.954030 1.145687 -2.260045 10042
M  V30 77 H 3.676040 2.370845 -2.213377 10043
M  V30 78 H -3.135698 -2.183645 -1.723926 10044
M  V30 79 H -1.710196 -1.165673 -1.403300 10045
M  V30 80 H -3.326402 -0.442154 -1.521953 10046
M  V30 81 H -2.210774 0.045131 -3.608853 10047
M  V30 82 H -3.513088 -1.103240 -3.857186 10048
M  V30 83 H -1.590384 -2.952901 -3.511143 10049
M  V30 84 H -2.054452 -2.226573 -5.058276 10050
M  V30 85 H -0.171438 0.272112 -3.756662 10051
M  V30 86 H 1.245286 -0.288461 -4.590246 10052
M  V30 87 H 2.644305 8.128935 -8.615821 10053
M  V30 88 H 1.850313 7.100839 -9.843469 10054
M  V30 89 H 1.590294 8.851076 -9.865236 10055
M  V30 90 H 0.292847 9.852018 -8.271235 10056
M  V30 91 H -0.996109 4.913664 2.186754 10064
M  V30 92 H -3.131334 10.308355 -7.316083 10069
M  V30 93 H 0.141221 4.264804 3.160956 10070
M  V30 94 H 2.711008 4.534754 2.252861 10071
M  V30 END ATOM
M  V30 BEGIN BOND
M  V30 1 1 1 2
M  V30 2 2 2 3
M  V30 3 1 2 4
M  V30 4 1 4 5
M  V30 5 2 5 6
M  V30 6 1 6 7
M  V30 7 2 7 8
M  V30 8 1 8 9
M  V30 9 2 9 10
M  V30 10 1 9 11
M  V30 11 1 8 12
M  V30 12 2 12 13
M  V30 13 1 13 5
M  V30 14 1 14 15
M  V30 15 1 14 16
M  V30 16 1 16 17
M  V30 17 1 18 19
M  V30 18 1 19 20
M  V30 19 1 18 21
M  V30 20 1 21 22
M  V30 21 1 21 23
M  V30 22 2 23 24
M  V30 23 1 24 25
M  V30 24 2 25 18
M  V30 25 1 26 27
M  V30 26 2 27 28
M  V30 27 1 27 29
M  V30 28 1 29 30
M  V30 29 1 31 32
M  V30 30 1 32 33
M  V30 31 1 32 34
M  V30 32 1 35 36
M  V30 33 1 36 37
M  V30 34 1 37 38
M  V30 35 2 38 39
M  V30 36 1 38 40
M  V30 37 1 41 42
M  V30 38 2 42 43
M  V30 39 1 44 20
M  V30 40 1 20 45
M  V30 41 2 45 46
M  V30 42 1 42 44
M  V30 43 1 47 17
M  V30 44 1 17 48
M  V30 45 2 48 49
M  V30 46 1 1 50 CFG=1
M  V30 47 1 1 51
M  V30 48 1 1 52
M  V30 49 1 6 53
M  V30 50 1 7 54
M  V30 51 1 12 55
M  V30 52 1 13 56
M  V30 53 1 16 57 CFG=3
M  V30 54 1 16 58
M  V30 55 1 17 59 CFG=3
M  V30 56 1 19 60 CFG=1
M  V30 57 1 19 61
M  V30 58 1 20 62 CFG=1
M  V30 59 1 23 63
M  V30 60 1 25 64
M  V30 61 1 29 65 CFG=3
M  V30 62 1 29 66
M  V30 63 1 30 67 CFG=1
M  V30 64 1 30 68
M  V30 65 1 30 69
M  V30 66 1 31 70 CFG=3
M  V30 67 1 31 71
M  V30 68 1 31 72
M  V30 69 1 32 73 CFG=3
M  V30 70 1 33 74
M  V30 71 1 34 75 CFG=1
M  V30 72 1 34 76
M  V30 73 1 34 77
M  V30 74 1 35 78 CFG=3
M  V30 75 1 35 79
M  V30 76 1 35 80
M  V30 77 1 36 81 CFG=3
M  V30 78 1 36 82
M  V30 79 1 37 83 CFG=1
M  V30 80 1 37 84
M  V30 81 1 40 85
M  V30 82 1 40 86
M  V30 83 1 41 87 CFG=1
M  V30 84 1 41 88
M  V30 85 1 41 89
M  V30 86 1 44 90
M  V30 87 1 47 91
M  V30 88 1 45 92
M  V30 89 1 47 93
M  V30 90 1 48 94
M  V30 END BOND
M  V30 END CTAB
M  END

$$$$
